support/feeders/R3-12.47-1.glm
clock {
     timezone EST+5EDT;
     timestamp '2000-01-01 0:00:00';
     stoptime '2000-01-01 0:01:00';
}
#set profiler=1
module tape;
module powerflow{
     solver_method NR;
      default_maximum_voltage_error 1e-6;
};

object transformer_configuration {
  name XF1_POLETOP_AS_10;
  power_rating 10.00;
  powerA_rating 10.00;
  powerB_rating 0.0;
  powerC_rating 0.0;
  install_type POLETOP;
  connect_type SINGLE_PHASE_CENTER_TAPPED;
  primary_voltage 7200.0;
  secondary_voltage 120.0;
  resistance 0.00950;
  resistance1 0.01900;
  resistance2 0.01900;
  reactance 0.01040;
  reactance1 0.00520;
  reactance2 0.00520;
  shunt_resistance 147.06;
  shunt_reactance 34.25;
}
object transformer_configuration {
  name XF1_POLETOP_CS_10;
  power_rating 10.00;
  powerA_rating 0.0;
  powerB_rating 0.0;
  powerC_rating 10.00;
  install_type POLETOP;
  connect_type SINGLE_PHASE_CENTER_TAPPED;
  primary_voltage 7200.0;
  secondary_voltage 120.0;
  resistance 0.00950;
  resistance1 0.01900;
  resistance2 0.01900;
  reactance 0.01040;
  reactance1 0.00520;
  reactance2 0.00520;
  shunt_resistance 147.06;
  shunt_reactance 34.25;
}
object transformer_configuration {
  name XF1_PADMOUNT_AS_10;
  power_rating 10.00;
  powerA_rating 10.00;
  powerB_rating 0.0;
  powerC_rating 0.0;
  install_type PADMOUNT;
  connect_type SINGLE_PHASE_CENTER_TAPPED;
  primary_voltage 7200.0;
  secondary_voltage 120.0;
  resistance 0.00950;
  resistance1 0.01900;
  resistance2 0.01900;
  reactance 0.01040;
  reactance1 0.00520;
  reactance2 0.00520;
  shunt_resistance 147.06;
  shunt_reactance 34.25;
}
object transformer_configuration {
  name XF1_PADMOUNT_BS_10;
  power_rating 10.00;
  powerA_rating 0.0;
  powerB_rating 10.00;
  powerC_rating 0.0;
  install_type PADMOUNT;
  connect_type SINGLE_PHASE_CENTER_TAPPED;
  primary_voltage 7200.0;
  secondary_voltage 120.0;
  resistance 0.00950;
  resistance1 0.01900;
  resistance2 0.01900;
  reactance 0.01040;
  reactance1 0.00520;
  reactance2 0.00520;
  shunt_resistance 147.06;
  shunt_reactance 34.25;
}
object transformer_configuration {
  name XF1_PADMOUNT_CS_10;
  power_rating 10.00;
  powerA_rating 0.0;
  powerB_rating 0.0;
  powerC_rating 10.00;
  install_type PADMOUNT;
  connect_type SINGLE_PHASE_CENTER_TAPPED;
  primary_voltage 7200.0;
  secondary_voltage 120.0;
  resistance 0.00950;
  resistance1 0.01900;
  resistance2 0.01900;
  reactance 0.01040;
  reactance1 0.00520;
  reactance2 0.00520;
  shunt_resistance 147.06;
  shunt_reactance 34.25;
}
object transformer_configuration {
  name XF1_POLETOP_AS_15;
  power_rating 15.00;
  powerA_rating 15.00;
  powerB_rating 0.0;
  powerC_rating 0.0;
  install_type POLETOP;
  connect_type SINGLE_PHASE_CENTER_TAPPED;
  primary_voltage 7200.0;
  secondary_voltage 120.0;
  resistance 0.00850;
  resistance1 0.01700;
  resistance2 0.01700;
  reactance 0.01176;
  reactance1 0.00588;
  reactance2 0.00588;
  shunt_resistance 166.67;
  shunt_reactance 39.53;
}
object transformer_configuration {
  name XF1_POLETOP_BS_15;
  power_rating 15.00;
  powerA_rating 0.0;
  powerB_rating 15.00;
  powerC_rating 0.0;
  install_type POLETOP;
  connect_type SINGLE_PHASE_CENTER_TAPPED;
  primary_voltage 7200.0;
  secondary_voltage 120.0;
  resistance 0.00850;
  resistance1 0.01700;
  resistance2 0.01700;
  reactance 0.01176;
  reactance1 0.00588;
  reactance2 0.00588;
  shunt_resistance 166.67;
  shunt_reactance 39.53;
}
object transformer_configuration {
  name XF1_POLETOP_CS_15;
  power_rating 15.00;
  powerA_rating 0.0;
  powerB_rating 0.0;
  powerC_rating 15.00;
  install_type POLETOP;
  connect_type SINGLE_PHASE_CENTER_TAPPED;
  primary_voltage 7200.0;
  secondary_voltage 120.0;
  resistance 0.00850;
  resistance1 0.01700;
  resistance2 0.01700;
  reactance 0.01176;
  reactance1 0.00588;
  reactance2 0.00588;
  shunt_resistance 166.67;
  shunt_reactance 39.53;
}
object transformer_configuration {
  name XF1_PADMOUNT_AS_5;
  power_rating 5.00;
  powerA_rating 5.00;
  powerB_rating 0.0;
  powerC_rating 0.0;
  install_type PADMOUNT;
  connect_type SINGLE_PHASE_CENTER_TAPPED;
  primary_voltage 7200.0;
  secondary_voltage 120.0;
  resistance 0.01050;
  resistance1 0.02100;
  resistance2 0.02100;
  reactance 0.01224;
  reactance1 0.00612;
  reactance2 0.00612;
  shunt_resistance 111.11;
  shunt_reactance 29.59;
}
object transformer_configuration {
  name XF1_PADMOUNT_BS_50;
  power_rating 50.00;
  powerA_rating 0.0;
  powerB_rating 50.00;
  powerC_rating 0.0;
  install_type PADMOUNT;
  connect_type SINGLE_PHASE_CENTER_TAPPED;
  primary_voltage 7200.0;
  secondary_voltage 120.0;
  resistance 0.00650;
  resistance1 0.01300;
  resistance2 0.01300;
  reactance 0.01416;
  reactance1 0.00708;
  reactance2 0.00708;
  shunt_resistance 222.22;
  shunt_reactance 64.94;
}
object transformer_configuration {
  name XF1_PADMOUNT_CS_50;
  power_rating 50.00;
  powerA_rating 0.0;
  powerB_rating 0.0;
  powerC_rating 50.00;
  install_type PADMOUNT;
  connect_type SINGLE_PHASE_CENTER_TAPPED;
  primary_voltage 7200.0;
  secondary_voltage 120.0;
  resistance 0.00650;
  resistance1 0.01300;
  resistance2 0.01300;
  reactance 0.01416;
  reactance1 0.00708;
  reactance2 0.00708;
  shunt_resistance 222.22;
  shunt_reactance 64.94;
}
object transformer_configuration {
  name XF1_PADMOUNT_AS_15;
  power_rating 15.00;
  powerA_rating 15.00;
  powerB_rating 0.0;
  powerC_rating 0.0;
  install_type PADMOUNT;
  connect_type SINGLE_PHASE_CENTER_TAPPED;
  primary_voltage 7200.0;
  secondary_voltage 120.0;
  resistance 0.00850;
  resistance1 0.01700;
  resistance2 0.01700;
  reactance 0.01176;
  reactance1 0.00588;
  reactance2 0.00588;
  shunt_resistance 166.67;
  shunt_reactance 39.53;
}
object transformer_configuration {
  name XF1_PADMOUNT_BS_15;
  power_rating 15.00;
  powerA_rating 0.0;
  powerB_rating 15.00;
  powerC_rating 0.0;
  install_type PADMOUNT;
  connect_type SINGLE_PHASE_CENTER_TAPPED;
  primary_voltage 7200.0;
  secondary_voltage 120.0;
  resistance 0.00850;
  resistance1 0.01700;
  resistance2 0.01700;
  reactance 0.01176;
  reactance1 0.00588;
  reactance2 0.00588;
  shunt_resistance 166.67;
  shunt_reactance 39.53;
}
object transformer_configuration {
  name XF1_PADMOUNT_CS_15;
  power_rating 15.00;
  powerA_rating 0.0;
  powerB_rating 0.0;
  powerC_rating 15.00;
  install_type PADMOUNT;
  connect_type SINGLE_PHASE_CENTER_TAPPED;
  primary_voltage 7200.0;
  secondary_voltage 120.0;
  resistance 0.00850;
  resistance1 0.01700;
  resistance2 0.01700;
  reactance 0.01176;
  reactance1 0.00588;
  reactance2 0.00588;
  shunt_resistance 166.67;
  shunt_reactance 39.53;
}
object transformer_configuration {
  name XF1_PADMOUNT_AS_25;
  power_rating 25.00;
  powerA_rating 25.00;
  powerB_rating 0.0;
  powerC_rating 0.0;
  install_type PADMOUNT;
  connect_type SINGLE_PHASE_CENTER_TAPPED;
  primary_voltage 7200.0;
  secondary_voltage 120.0;
  resistance 0.00800;
  resistance1 0.01600;
  resistance2 0.01600;
  reactance 0.01208;
  reactance1 0.00604;
  reactance2 0.00604;
  shunt_resistance 192.31;
  shunt_reactance 51.81;
}
object transformer_configuration {
  name XF1_PADMOUNT_BS_25;
  power_rating 25.00;
  powerA_rating 0.0;
  powerB_rating 25.00;
  powerC_rating 0.0;
  install_type PADMOUNT;
  connect_type SINGLE_PHASE_CENTER_TAPPED;
  primary_voltage 7200.0;
  secondary_voltage 120.0;
  resistance 0.00800;
  resistance1 0.01600;
  resistance2 0.01600;
  reactance 0.01208;
  reactance1 0.00604;
  reactance2 0.00604;
  shunt_resistance 192.31;
  shunt_reactance 51.81;
}
object transformer_configuration {
  name XF1_PADMOUNT_CS_25;
  power_rating 25.00;
  powerA_rating 0.0;
  powerB_rating 0.0;
  powerC_rating 25.00;
  install_type PADMOUNT;
  connect_type SINGLE_PHASE_CENTER_TAPPED;
  primary_voltage 7200.0;
  secondary_voltage 120.0;
  resistance 0.00800;
  resistance1 0.01600;
  resistance2 0.01600;
  reactance 0.01208;
  reactance1 0.00604;
  reactance2 0.00604;
  shunt_resistance 192.31;
  shunt_reactance 51.81;
}
object transformer_configuration {
  name XF1_POLETOP_AS_25;
  power_rating 25.00;
  powerA_rating 25.00;
  powerB_rating 0.0;
  powerC_rating 0.0;
  install_type POLETOP;
  connect_type SINGLE_PHASE_CENTER_TAPPED;
  primary_voltage 7200.0;
  secondary_voltage 120.0;
  resistance 0.00800;
  resistance1 0.01600;
  resistance2 0.01600;
  reactance 0.01208;
  reactance1 0.00604;
  reactance2 0.00604;
  shunt_resistance 192.31;
  shunt_reactance 51.81;
}
object transformer_configuration {
  name XF1_POLETOP_BS_25;
  power_rating 25.00;
  powerA_rating 0.0;
  powerB_rating 25.00;
  powerC_rating 0.0;
  install_type POLETOP;
  connect_type SINGLE_PHASE_CENTER_TAPPED;
  primary_voltage 7200.0;
  secondary_voltage 120.0;
  resistance 0.00800;
  resistance1 0.01600;
  resistance2 0.01600;
  reactance 0.01208;
  reactance1 0.00604;
  reactance2 0.00604;
  shunt_resistance 192.31;
  shunt_reactance 51.81;
}
object transformer_configuration {
  name XF1_POLETOP_CS_25;
  power_rating 25.00;
  powerA_rating 0.0;
  powerB_rating 0.0;
  powerC_rating 25.00;
  install_type POLETOP;
  connect_type SINGLE_PHASE_CENTER_TAPPED;
  primary_voltage 7200.0;
  secondary_voltage 120.0;
  resistance 0.00800;
  resistance1 0.01600;
  resistance2 0.01600;
  reactance 0.01208;
  reactance1 0.00604;
  reactance2 0.00604;
  shunt_resistance 192.31;
  shunt_reactance 51.81;
}
object transformer_configuration {
  name XF1_POLETOP_AS_37p5;
  power_rating 37.50;
  powerA_rating 37.50;
  powerB_rating 0.0;
  powerC_rating 0.0;
  install_type POLETOP;
  connect_type SINGLE_PHASE_CENTER_TAPPED;
  primary_voltage 7200.0;
  secondary_voltage 120.0;
  resistance 0.00725;
  resistance1 0.01450;
  resistance2 0.01450;
  reactance 0.01320;
  reactance1 0.00660;
  reactance2 0.00660;
  shunt_resistance 212.77;
  shunt_reactance 57.47;
}
object transformer_configuration {
  name XF1_POLETOP_BS_37p5;
  power_rating 37.50;
  powerA_rating 0.0;
  powerB_rating 37.50;
  powerC_rating 0.0;
  install_type POLETOP;
  connect_type SINGLE_PHASE_CENTER_TAPPED;
  primary_voltage 7200.0;
  secondary_voltage 120.0;
  resistance 0.00725;
  resistance1 0.01450;
  resistance2 0.01450;
  reactance 0.01320;
  reactance1 0.00660;
  reactance2 0.00660;
  shunt_resistance 212.77;
  shunt_reactance 57.47;
}
object transformer_configuration {
  name XF1_POLETOP_CS_37p5;
  power_rating 37.50;
  powerA_rating 0.0;
  powerB_rating 0.0;
  powerC_rating 37.50;
  install_type POLETOP;
  connect_type SINGLE_PHASE_CENTER_TAPPED;
  primary_voltage 7200.0;
  secondary_voltage 120.0;
  resistance 0.00725;
  resistance1 0.01450;
  resistance2 0.01450;
  reactance 0.01320;
  reactance1 0.00660;
  reactance2 0.00660;
  shunt_resistance 212.77;
  shunt_reactance 57.47;
}
object transformer_configuration {
  name XF1_PADMOUNT_BS_5;
  power_rating 5.00;
  powerA_rating 0.0;
  powerB_rating 5.00;
  powerC_rating 0.0;
  install_type PADMOUNT;
  connect_type SINGLE_PHASE_CENTER_TAPPED;
  primary_voltage 7200.0;
  secondary_voltage 120.0;
  resistance 0.01050;
  resistance1 0.02100;
  resistance2 0.02100;
  reactance 0.01224;
  reactance1 0.00612;
  reactance2 0.00612;
  shunt_resistance 111.11;
  shunt_reactance 29.59;
}
object transformer_configuration {
  name XF1_POLETOP_BS_5;
  power_rating 5.00;
  powerA_rating 0.0;
  powerB_rating 5.00;
  powerC_rating 0.0;
  install_type POLETOP;
  connect_type SINGLE_PHASE_CENTER_TAPPED;
  primary_voltage 7200.0;
  secondary_voltage 120.0;
  resistance 0.01050;
  resistance1 0.02100;
  resistance2 0.02100;
  reactance 0.01224;
  reactance1 0.00612;
  reactance2 0.00612;
  shunt_resistance 111.11;
  shunt_reactance 29.59;
}
object transformer_configuration {
  name XF1_POLETOP_BS_10;
  power_rating 10.00;
  powerA_rating 0.0;
  powerB_rating 10.00;
  powerC_rating 0.0;
  install_type POLETOP;
  connect_type SINGLE_PHASE_CENTER_TAPPED;
  primary_voltage 7200.0;
  secondary_voltage 120.0;
  resistance 0.00950;
  resistance1 0.01900;
  resistance2 0.01900;
  reactance 0.01040;
  reactance1 0.00520;
  reactance2 0.00520;
  shunt_resistance 147.06;
  shunt_reactance 34.25;
}
object transformer_configuration {
  name XF1_POLETOP_AS_5;
  power_rating 5.00;
  powerA_rating 5.00;
  powerB_rating 0.0;
  powerC_rating 0.0;
  install_type POLETOP;
  connect_type SINGLE_PHASE_CENTER_TAPPED;
  primary_voltage 7200.0;
  secondary_voltage 120.0;
  resistance 0.01050;
  resistance1 0.02100;
  resistance2 0.02100;
  reactance 0.01224;
  reactance1 0.00612;
  reactance2 0.00612;
  shunt_resistance 111.11;
  shunt_reactance 29.59;
}
object transformer_configuration {
  name XF1_PADMOUNT_CS_5;
  power_rating 5.00;
  powerA_rating 0.0;
  powerB_rating 0.0;
  powerC_rating 5.00;
  install_type PADMOUNT;
  connect_type SINGLE_PHASE_CENTER_TAPPED;
  primary_voltage 7200.0;
  secondary_voltage 120.0;
  resistance 0.01050;
  resistance1 0.02100;
  resistance2 0.02100;
  reactance 0.01224;
  reactance1 0.00612;
  reactance2 0.00612;
  shunt_resistance 111.11;
  shunt_reactance 29.59;
}
object transformer_configuration {
  name XF1_PADMOUNT_AS_100;
  power_rating 100.00;
  powerA_rating 100.00;
  powerB_rating 0.0;
  powerC_rating 0.0;
  install_type PADMOUNT;
  connect_type SINGLE_PHASE_CENTER_TAPPED;
  primary_voltage 7200.0;
  secondary_voltage 120.0;
  resistance 0.00600;
  resistance1 0.01200;
  resistance2 0.01200;
  reactance 0.01752;
  reactance1 0.00876;
  reactance2 0.00876;
  shunt_resistance 250.00;
  shunt_reactance 68.97;
}
object transformer_configuration {
  name XF1_PADMOUNT_BS_100;
  power_rating 100.00;
  powerA_rating 0.0;
  powerB_rating 100.00;
  powerC_rating 0.0;
  install_type PADMOUNT;
  connect_type SINGLE_PHASE_CENTER_TAPPED;
  primary_voltage 7200.0;
  secondary_voltage 120.0;
  resistance 0.00600;
  resistance1 0.01200;
  resistance2 0.01200;
  reactance 0.01752;
  reactance1 0.00876;
  reactance2 0.00876;
  shunt_resistance 250.00;
  shunt_reactance 68.97;
}
object transformer_configuration {
  name XF1_PADMOUNT_CS_100;
  power_rating 100.00;
  powerA_rating 0.0;
  powerB_rating 0.0;
  powerC_rating 100.00;
  install_type PADMOUNT;
  connect_type SINGLE_PHASE_CENTER_TAPPED;
  primary_voltage 7200.0;
  secondary_voltage 120.0;
  resistance 0.00600;
  resistance1 0.01200;
  resistance2 0.01200;
  reactance 0.01752;
  reactance1 0.00876;
  reactance2 0.00876;
  shunt_resistance 250.00;
  shunt_reactance 68.97;
}
object transformer_configuration {
  name XF1_PADMOUNT_AS_37p5;
  power_rating 37.50;
  powerA_rating 37.50;
  powerB_rating 0.0;
  powerC_rating 0.0;
  install_type PADMOUNT;
  connect_type SINGLE_PHASE_CENTER_TAPPED;
  primary_voltage 7200.0;
  secondary_voltage 120.0;
  resistance 0.00725;
  resistance1 0.01450;
  resistance2 0.01450;
  reactance 0.01320;
  reactance1 0.00660;
  reactance2 0.00660;
  shunt_resistance 212.77;
  shunt_reactance 57.47;
}
object transformer_configuration {
  name XF1_PADMOUNT_BS_37p5;
  power_rating 37.50;
  powerA_rating 0.0;
  powerB_rating 37.50;
  powerC_rating 0.0;
  install_type PADMOUNT;
  connect_type SINGLE_PHASE_CENTER_TAPPED;
  primary_voltage 7200.0;
  secondary_voltage 120.0;
  resistance 0.00725;
  resistance1 0.01450;
  resistance2 0.01450;
  reactance 0.01320;
  reactance1 0.00660;
  reactance2 0.00660;
  shunt_resistance 212.77;
  shunt_reactance 57.47;
}
object transformer_configuration {
  name XF1_PADMOUNT_CS_37p5;
  power_rating 37.50;
  powerA_rating 0.0;
  powerB_rating 0.0;
  powerC_rating 37.50;
  install_type PADMOUNT;
  connect_type SINGLE_PHASE_CENTER_TAPPED;
  primary_voltage 7200.0;
  secondary_voltage 120.0;
  resistance 0.00725;
  resistance1 0.01450;
  resistance2 0.01450;
  reactance 0.01320;
  reactance1 0.00660;
  reactance2 0.00660;
  shunt_resistance 212.77;
  shunt_reactance 57.47;
}
object transformer_configuration {
  name XF1_PADMOUNT_AS_50;
  power_rating 50.00;
  powerA_rating 50.00;
  powerB_rating 0.0;
  powerC_rating 0.0;
  install_type PADMOUNT;
  connect_type SINGLE_PHASE_CENTER_TAPPED;
  primary_voltage 7200.0;
  secondary_voltage 120.0;
  resistance 0.00650;
  resistance1 0.01300;
  resistance2 0.01300;
  reactance 0.01416;
  reactance1 0.00708;
  reactance2 0.00708;
  shunt_resistance 222.22;
  shunt_reactance 64.94;
}
object transformer_configuration {
  name XF1_POLETOP_AS_50;
  power_rating 50.00;
  powerA_rating 50.00;
  powerB_rating 0.0;
  powerC_rating 0.0;
  install_type POLETOP;
  connect_type SINGLE_PHASE_CENTER_TAPPED;
  primary_voltage 7200.0;
  secondary_voltage 120.0;
  resistance 0.00650;
  resistance1 0.01300;
  resistance2 0.01300;
  reactance 0.01416;
  reactance1 0.00708;
  reactance2 0.00708;
  shunt_resistance 222.22;
  shunt_reactance 64.94;
}
object transformer_configuration {
  name XF1_POLETOP_BS_50;
  power_rating 50.00;
  powerA_rating 0.0;
  powerB_rating 50.00;
  powerC_rating 0.0;
  install_type POLETOP;
  connect_type SINGLE_PHASE_CENTER_TAPPED;
  primary_voltage 7200.0;
  secondary_voltage 120.0;
  resistance 0.00650;
  resistance1 0.01300;
  resistance2 0.01300;
  reactance 0.01416;
  reactance1 0.00708;
  reactance2 0.00708;
  shunt_resistance 222.22;
  shunt_reactance 64.94;
}
object transformer_configuration {
  name XF1_POLETOP_CS_50;
  power_rating 50.00;
  powerA_rating 0.0;
  powerB_rating 0.0;
  powerC_rating 50.00;
  install_type POLETOP;
  connect_type SINGLE_PHASE_CENTER_TAPPED;
  primary_voltage 7200.0;
  secondary_voltage 120.0;
  resistance 0.00650;
  resistance1 0.01300;
  resistance2 0.01300;
  reactance 0.01416;
  reactance1 0.00708;
  reactance2 0.00708;
  shunt_resistance 222.22;
  shunt_reactance 64.94;
}
object transformer_configuration {
  name XF1_POLETOP_CS_5;
  power_rating 5.00;
  powerA_rating 0.0;
  powerB_rating 0.0;
  powerC_rating 5.00;
  install_type POLETOP;
  connect_type SINGLE_PHASE_CENTER_TAPPED;
  primary_voltage 7200.0;
  secondary_voltage 120.0;
  resistance 0.01050;
  resistance1 0.02100;
  resistance2 0.02100;
  reactance 0.01224;
  reactance1 0.00612;
  reactance2 0.00612;
  shunt_resistance 111.11;
  shunt_reactance 29.59;
}
object transformer_configuration {
  name XF3_POLETOP_ABCN_750;
  power_rating 750.00;
  powerA_rating 250.00;
  powerB_rating 250.00;
  powerC_rating 250.00;
  install_type POLETOP;
  connect_type WYE_WYE;
  primary_voltage 12470.0;
  secondary_voltage 480.0;
  resistance 0.00970;
  reactance 0.05110;
  shunt_resistance 227.27;
  shunt_reactance 52.91;
}
object transformer_configuration {
  name XF3_POLETOP_ABCN_150;
  power_rating 150.00;
  powerA_rating 50.00;
  powerB_rating 50.00;
  powerC_rating 50.00;
  install_type POLETOP;
  connect_type WYE_WYE;
  primary_voltage 12470.0;
  secondary_voltage 480.0;
  resistance 0.01300;
  reactance 0.03250;
  shunt_resistance 185.19;
  shunt_reactance 36.36;
}
object transformer_configuration {
  name XF3_POLETOP_ABCN_45;
  power_rating 45.00;
  powerA_rating 15.00;
  powerB_rating 15.00;
  powerC_rating 15.00;
  install_type POLETOP;
  connect_type WYE_WYE;
  primary_voltage 12470.0;
  secondary_voltage 208.0;
  resistance 0.01750;
  reactance 0.02120;
  shunt_resistance 142.86;
  shunt_reactance 25.38;
}
object transformer_configuration {
  name XF3_PADMOUNT_ABCN_45;
  power_rating 45.00;
  powerA_rating 15.00;
  powerB_rating 15.00;
  powerC_rating 15.00;
  install_type PADMOUNT;
  connect_type WYE_WYE;
  primary_voltage 12470.0;
  secondary_voltage 208.0;
  resistance 0.01750;
  reactance 0.02120;
  shunt_resistance 142.86;
  shunt_reactance 25.38;
}
object transformer_configuration {
  name XF3_POLETOP_ABCN_225;
  power_rating 225.00;
  powerA_rating 75.00;
  powerB_rating 75.00;
  powerC_rating 75.00;
  install_type POLETOP;
  connect_type WYE_WYE;
  primary_voltage 12470.0;
  secondary_voltage 480.0;
  resistance 0.01300;
  reactance 0.03520;
  shunt_resistance 200.00;
  shunt_reactance 40.00;
}
object transformer_configuration {
  name XF3_PADMOUNT_ABCN_1000;
  power_rating 1000.00;
  powerA_rating 333.33;
  powerB_rating 333.33;
  powerC_rating 333.33;
  install_type PADMOUNT;
  connect_type WYE_WYE;
  primary_voltage 12470.0;
  secondary_voltage 480.0;
  resistance 0.00850;
  reactance 0.05690;
  shunt_resistance 232.56;
  shunt_reactance 60.61;
}
object transformer_configuration {
  name XF3_PADMOUNT_ABCN_150;
  power_rating 150.00;
  powerA_rating 50.00;
  powerB_rating 50.00;
  powerC_rating 50.00;
  install_type PADMOUNT;
  connect_type WYE_WYE;
  primary_voltage 12470.0;
  secondary_voltage 480.0;
  resistance 0.01300;
  reactance 0.03250;
  shunt_resistance 185.19;
  shunt_reactance 36.36;
}
object transformer_configuration {
  name XF3_PADMOUNT_ABCN_75;
  power_rating 75.00;
  powerA_rating 25.00;
  powerB_rating 25.00;
  powerC_rating 25.00;
  install_type PADMOUNT;
  connect_type WYE_WYE;
  primary_voltage 12470.0;
  secondary_voltage 208.0;
  resistance 0.01600;
  reactance 0.02420;
  shunt_resistance 158.73;
  shunt_reactance 30.86;
}
object transformer_configuration {
  name XF3_POLETOP_ABCN_112p5;
  power_rating 112.50;
  powerA_rating 37.50;
  powerB_rating 37.50;
  powerC_rating 37.50;
  install_type POLETOP;
  connect_type WYE_WYE;
  primary_voltage 12470.0;
  secondary_voltage 480.0;
  resistance 0.01450;
  reactance 0.02850;
  shunt_resistance 169.49;
  shunt_reactance 33.44;
}
object transformer_configuration {
  name XF2_POLETOP_BCN_30;
  power_rating 30.00;
  powerA_rating 0.0;
  powerB_rating 15.00;
  powerC_rating 15.00;
  install_type POLETOP;
  connect_type WYE_WYE;
  primary_voltage 12470.0;
  secondary_voltage 208.0;
  resistance 0.01900;
  reactance 0.01770;
  shunt_resistance 126.58;
  shunt_reactance 22.57;
}
object transformer_configuration {
  name XF2_PADMOUNT_ACN_30;
  power_rating 30.00;
  powerA_rating 15.00;
  powerB_rating 0.0;
  powerC_rating 15.00;
  install_type PADMOUNT;
  connect_type WYE_WYE;
  primary_voltage 12470.0;
  secondary_voltage 208.0;
  resistance 0.01900;
  reactance 0.01770;
  shunt_resistance 126.58;
  shunt_reactance 22.57;
}
object transformer_configuration {
  name XF3_PADMOUNT_ABCN_112p5;
  power_rating 112.50;
  powerA_rating 37.50;
  powerB_rating 37.50;
  powerC_rating 37.50;
  install_type PADMOUNT;
  connect_type WYE_WYE;
  primary_voltage 12470.0;
  secondary_voltage 480.0;
  resistance 0.01450;
  reactance 0.02850;
  shunt_resistance 169.49;
  shunt_reactance 33.44;
}
object transformer_configuration {
  name XF2_PADMOUNT_ABN_30;
  power_rating 30.00;
  powerA_rating 15.00;
  powerB_rating 15.00;
  powerC_rating 0.0;
  install_type PADMOUNT;
  connect_type WYE_WYE;
  primary_voltage 12470.0;
  secondary_voltage 208.0;
  resistance 0.01900;
  reactance 0.01770;
  shunt_resistance 126.58;
  shunt_reactance 22.57;
}
object transformer_configuration {
  name XF3_PADMOUNT_ABCN_30;
  power_rating 30.00;
  powerA_rating 10.00;
  powerB_rating 10.00;
  powerC_rating 10.00;
  install_type PADMOUNT;
  connect_type WYE_WYE;
  primary_voltage 12470.0;
  secondary_voltage 208.0;
  resistance 0.01900;
  reactance 0.01770;
  shunt_resistance 126.58;
  shunt_reactance 22.57;
}
object transformer_configuration {
  name XF3_POLETOP_ABCN_75;
  power_rating 75.00;
  powerA_rating 25.00;
  powerB_rating 25.00;
  powerC_rating 25.00;
  install_type POLETOP;
  connect_type WYE_WYE;
  primary_voltage 12470.0;
  secondary_voltage 208.0;
  resistance 0.01600;
  reactance 0.02420;
  shunt_resistance 158.73;
  shunt_reactance 30.86;
}
object transformer_configuration {
  name XF2_POLETOP_ABN_30;
  power_rating 30.00;
  powerA_rating 15.00;
  powerB_rating 15.00;
  powerC_rating 0.0;
  install_type POLETOP;
  connect_type WYE_WYE;
  primary_voltage 12470.0;
  secondary_voltage 208.0;
  resistance 0.01900;
  reactance 0.01770;
  shunt_resistance 126.58;
  shunt_reactance 22.57;
}
object transformer_configuration {
  name XF3_POLETOP_ABCN_30;
  power_rating 30.00;
  powerA_rating 10.00;
  powerB_rating 10.00;
  powerC_rating 10.00;
  install_type POLETOP;
  connect_type WYE_WYE;
  primary_voltage 12470.0;
  secondary_voltage 208.0;
  resistance 0.01900;
  reactance 0.01770;
  shunt_resistance 126.58;
  shunt_reactance 22.57;
}
object transformer_configuration {
  name XF3_POLETOP_ABCN_500;
  power_rating 500.00;
  powerA_rating 166.67;
  powerB_rating 166.67;
  powerC_rating 166.67;
  install_type POLETOP;
  connect_type WYE_WYE;
  primary_voltage 12470.0;
  secondary_voltage 480.0;
  resistance 0.01100;
  reactance 0.04880;
  shunt_resistance 222.22;
  shunt_reactance 44.25;
}
object transformer_configuration {
  name XF3_PADMOUNT_ABCN_2000;
  power_rating 2000.00;
  powerA_rating 666.67;
  powerB_rating 666.67;
  powerC_rating 666.67;
  install_type PADMOUNT;
  connect_type WYE_WYE;
  primary_voltage 12470.0;
  secondary_voltage 480.0;
  resistance 0.00720;
  reactance 0.05700;
  shunt_resistance 277.78;
  shunt_reactance 71.94;
}
object transformer_configuration {
  name XF3_POLETOP_ABCN_7500;
  power_rating 7500.00;
  powerA_rating 2500.00;
  powerB_rating 2500.00;
  powerC_rating 2500.00;
  install_type POLETOP;
  connect_type WYE_WYE;
  primary_voltage 12470.0;
  secondary_voltage 480.0;
  resistance 0.00550;
  reactance 0.05720;
  shunt_resistance 357.14;
  shunt_reactance 93.46;
}
object regulator_configuration {
  name feeder_reg_cfg;
  Control OUTPUT_VOLTAGE;
  band_center 7500.0;
  band_width 120;
  connect_type WYE_WYE;
  time_delay 30;
  raise_taps 16;
  lower_taps 16;
  regulation 0.10;
  tap_pos_A 0;
  tap_pos_B 0;
  tap_pos_C 0;
}
object overhead_line_conductor {
  name ID_1125;
  rating.summer.continuous 180.0;
  geometric_mean_radius 0.00340 ft;
  resistance 0.28600;
}
object overhead_line_conductor {
  name ID_1126;
  rating.summer.continuous 149.0;
  geometric_mean_radius 0.00663 ft;
  resistance 1.50000;
}
object overhead_line_conductor {
  name ID_1127;
  rating.summer.continuous 300.0;
  geometric_mean_radius 0.00600 ft;
  resistance 0.63800;
}
object overhead_line_conductor {
  name ID_1128;
  rating.summer.continuous 530.0;
  geometric_mean_radius 0.02300 ft;
  resistance 0.30300;
}
object overhead_line_conductor {
  name ID_1129;
  rating.summer.continuous 230.0;
  geometric_mean_radius 0.01203 ft;
  resistance 0.95300;
}
object overhead_line_conductor {
  name ID_1130;
  rating.summer.continuous 334.0;
  geometric_mean_radius 0.00814 ft;
  resistance 0.56300;
}
object overhead_line_conductor {
  name ID_1131;
  rating.summer.continuous 958.0;
  geometric_mean_radius 0.02940 ft;
  resistance 0.16300;
}
object line_spacing {
  name ID_105;
  distance_AB 37.0 in;
  distance_BC 37.0 in;
  distance_AC 37.0 in;
  distance_AN 37.0 in;
  distance_BN 37.0 in;
  distance_CN 37.0 in;
}
object line_spacing {
  name ID_106;
  distance_AB 37.0 in;
  distance_AN 37.0 in;
  distance_BN 37.0 in;
}
object line_spacing {
  name ID_107;
  distance_BC 37.0 in;
  distance_BN 37.0 in;
  distance_CN 37.0 in;
}
object line_spacing {
  name ID_108;
  distance_AC 37.0 in;
  distance_AN 37.0 in;
  distance_CN 37.0 in;
}
object line_spacing {
  name ID_109;
  distance_AN 37.0 in;
}
object line_spacing {
  name ID_110;
  distance_BN 37.0 in;
}
object line_spacing {
  name ID_111;
  distance_CN 37.0 in;
}
object line_configuration {
  name ID_65;
  conductor_A ID_1125;
  conductor_B ID_1125;
  conductor_C ID_1125;
  conductor_N ID_1125;
  spacing ID_105;
}
object line_configuration {
  name ID_66;
  conductor_A ID_1125;
  conductor_B ID_1125;
  conductor_N ID_1125;
  spacing ID_106;
}
object line_configuration {
  name ID_67;
  conductor_B ID_1125;
  conductor_C ID_1125;
  conductor_N ID_1125;
  spacing ID_107;
}
object line_configuration {
  name ID_68;
  conductor_A ID_3649;
  conductor_B ID_3649;
  conductor_C ID_3649;
  conductor_N ID_3649;
  spacing ID_105;
}
object line_configuration {
  name ID_69;
  conductor_A ID_1126;
  conductor_C ID_1126;
  conductor_N ID_1126;
  spacing ID_108;
}
object line_configuration {
  name ID_70;
  conductor_A ID_3650;
  conductor_C ID_3650;
  conductor_N ID_3650;
  spacing ID_108;
}
object line_configuration {
  name ID_71;
  conductor_B ID_3649;
  conductor_C ID_3649;
  conductor_N ID_3649;
  spacing ID_107;
}
object line_configuration {
  name ID_72;
  conductor_A ID_3650;
  conductor_B ID_3650;
  conductor_C ID_3650;
  conductor_N ID_3650;
  spacing ID_105;
}
object line_configuration {
  name ID_73;
  conductor_A ID_3649;
  conductor_C ID_3649;
  conductor_N ID_3649;
  spacing ID_108;
}
object line_configuration {
  name ID_74;
  conductor_A ID_1127;
  conductor_C ID_1127;
  conductor_N ID_1127;
  spacing ID_108;
}
object line_configuration {
  name ID_75;
  conductor_A ID_1126;
  conductor_N ID_1126;
  spacing ID_109;
}
object line_configuration {
  name ID_76;
  conductor_A ID_1128;
  conductor_B ID_1128;
  conductor_C ID_1128;
  conductor_N ID_1128;
  spacing ID_105;
}
object line_configuration {
  name ID_77;
  conductor_A ID_1126;
  conductor_B ID_1126;
  conductor_C ID_1126;
  conductor_N ID_1126;
  spacing ID_105;
}
object line_configuration {
  name ID_78;
  conductor_A ID_3651;
  conductor_B ID_3651;
  conductor_C ID_3651;
  conductor_N ID_3651;
  spacing ID_105;
}
object line_configuration {
  name ID_79;
  conductor_B ID_3649;
  conductor_N ID_3649;
  spacing ID_110;
}
object line_configuration {
  name ID_80;
  conductor_A ID_3649;
  conductor_N ID_3649;
  spacing ID_109;
}
object line_configuration {
  name ID_81;
  conductor_A ID_3649;
  conductor_B ID_3649;
  conductor_N ID_3649;
  spacing ID_106;
}
object line_configuration {
  name ID_82;
  conductor_C ID_3649;
  conductor_N ID_3649;
  spacing ID_111;
}
object line_configuration {
  name ID_83;
  conductor_A ID_1129;
  conductor_B ID_1129;
  conductor_C ID_1129;
  conductor_N ID_1129;
  spacing ID_105;
}
object line_configuration {
  name ID_84;
  conductor_B ID_1130;
  conductor_N ID_1130;
  spacing ID_110;
}
object line_configuration {
  name ID_85;
  conductor_A ID_1125;
  conductor_C ID_1125;
  conductor_N ID_1125;
  spacing ID_108;
}
object line_configuration {
  name ID_86;
  conductor_A ID_3650;
  conductor_B ID_3650;
  conductor_N ID_3650;
  spacing ID_106;
}
object line_configuration {
  name ID_87;
  conductor_B ID_1126;
  conductor_C ID_1126;
  conductor_N ID_1126;
  spacing ID_107;
}
object line_configuration {
  name ID_88;
  conductor_A ID_3652;
  conductor_B ID_3652;
  conductor_C ID_3652;
  conductor_N ID_3652;
  spacing ID_105;
}
object line_configuration {
  name ID_89;
  conductor_A ID_3653;
  conductor_B ID_3653;
  conductor_C ID_3653;
  conductor_N ID_3653;
  spacing ID_105;
}
object line_configuration {
  name ID_90;
  conductor_A ID_3654;
  conductor_B ID_3654;
  conductor_C ID_3654;
  conductor_N ID_3654;
  spacing ID_105;
}
object line_configuration {
  name ID_91;
  conductor_A ID_3655;
  conductor_B ID_3655;
  conductor_C ID_3655;
  conductor_N ID_3655;
  spacing ID_105;
}
object line_configuration {
  name ID_92;
  conductor_A ID_3655;
  conductor_B ID_3655;
  conductor_N ID_3655;
  spacing ID_106;
}
object line_configuration {
  name ID_93;
  conductor_A ID_1126;
  conductor_B ID_1126;
  conductor_N ID_1126;
  spacing ID_106;
}
object line_configuration {
  name ID_94;
  conductor_A ID_1130;
  conductor_B ID_1130;
  conductor_C ID_1130;
  conductor_N ID_1130;
  spacing ID_105;
}
object line_configuration {
  name ID_95;
  conductor_C ID_1126;
  conductor_N ID_1126;
  spacing ID_111;
}
object line_configuration {
  name ID_96;
  conductor_C ID_1130;
  conductor_N ID_1130;
  spacing ID_111;
}
object line_configuration {
  name ID_97;
  conductor_C ID_1125;
  conductor_N ID_1125;
  spacing ID_111;
}
object line_configuration {
  name ID_98;
  conductor_A ID_3655;
  conductor_C ID_3655;
  conductor_N ID_3655;
  spacing ID_108;
}
object line_configuration {
  name ID_99;
  conductor_A ID_3650;
  conductor_N ID_3650;
  spacing ID_109;
}
object line_configuration {
  name ID_100;
  conductor_A ID_1129;
  conductor_N ID_1129;
  spacing ID_109;
}
object line_configuration {
  name ID_101;
  conductor_A ID_1127;
  conductor_B ID_1127;
  conductor_C ID_1127;
  conductor_N ID_1127;
  spacing ID_105;
}
object line_configuration {
  name ID_102;
  conductor_A ID_1131;
  conductor_B ID_1131;
  conductor_C ID_1131;
  conductor_N ID_1131;
  spacing ID_105;
}
object line_configuration {
  name ID_103;
  conductor_B ID_3650;
  conductor_C ID_3650;
  conductor_N ID_3650;
  spacing ID_107;
}
object line_configuration {
  name ID_104;
  conductor_A ID_3656;
  conductor_B ID_3656;
  conductor_C ID_3656;
  conductor_N ID_3656;
  spacing ID_105;
}
object triplex_line_conductor {
  name triplex_4/0 AA;
  resistance 0.48;
  geometric_mean_radius 0.0158;
  rating.summer.continuous 1000.0;
  rating.summer.emergency 1000.0;
  rating.winter.continuous 1000.0;
  rating.winter.emergency 1000.0;
}
object triplex_line_configuration {
  name ID_1726;
  conductor_1 triplex_4/0 AA;
  conductor_2 triplex_4/0 AA;
  conductor_N triplex_4/0 AA;
  insulation_thickness 0.08;
  diameter 0.522;
}
object underground_line_conductor {
  name ID_3649;
  rating.summer.continuous 101.0;
  outer_diameter 1.021;
  conductor_gmr 0.00905 ft;
  conductor_diameter 0.283;
  conductor_resistance 1.4124;
  neutral_gmr 0.00208 ft;
  neutral_resistance 14.87;
  neutral_diameter 0.0641;
  neutral_strands 7.0;
  insulation_relative_permitivitty 2.3;
}
object underground_line_conductor {
  name ID_3650;
  rating.summer.continuous 142.0;
  outer_diameter 1.27;
  conductor_gmr 0.01142 ft;
  conductor_diameter 0.362;
  conductor_resistance 0.88704;
  neutral_gmr 0.00208 ft;
  neutral_resistance 14.87;
  neutral_diameter 0.0641;
  neutral_strands 16.0;
  insulation_relative_permitivitty 2.3;
}
object underground_line_conductor {
  name ID_3651;
  rating.summer.continuous 488.0;
  outer_diameter 2.15;
  conductor_gmr 0.0371 ft;
  conductor_diameter 1.152;
  conductor_resistance 0.091872;
  neutral_gmr 0.00330 ft;
  neutral_resistance 5.9026;
  neutral_diameter 0.1019;
  neutral_strands 20.0;
  insulation_relative_permitivitty 2.3;
}
object underground_line_conductor {
  name ID_3652;
  rating.summer.continuous 662.0;
  outer_diameter 2.291;
  conductor_gmr 0.03592 ft;
  conductor_diameter 1.117;
  conductor_resistance 0.057024;
  neutral_gmr 0.00330 ft;
  neutral_resistance 5.9026;
  neutral_diameter 0.1019;
  neutral_strands 20.0;
  insulation_relative_permitivitty 2.3;
}
object underground_line_conductor {
  name ID_3653;
  rating.summer.continuous 775.0;
  outer_diameter 1.87;
  conductor_gmr 0.0371 ft;
  conductor_diameter 1.15;
  conductor_resistance 0.1162;
  shield_gmr 0.069167;
  shield_resistance 2.0135;
  shield_thickness 0.005;
  shield_diameter 1.66;
  insulation_relative_permitivitty 2.3;
}
object underground_line_conductor {
  name ID_3654;
  rating.summer.continuous 425.0;
  outer_diameter 1.96;
  conductor_gmr 0.0321 ft;
  conductor_diameter 0.998;
  conductor_resistance 0.122496;
  neutral_gmr 0.00330 ft;
  neutral_resistance 5.9026;
  neutral_diameter 0.1019;
  neutral_strands 15.0;
  insulation_relative_permitivitty 2.3;
}
object underground_line_conductor {
  name ID_3655;
  rating.summer.continuous 112.0;
  outer_diameter 1.09;
  conductor_gmr 0.0088 ft;
  conductor_diameter 0.292;
  conductor_resistance 1.38336;
  neutral_gmr 0.00208 ft;
  neutral_resistance 14.87;
  neutral_diameter 0.0641;
  neutral_strands 6.0;
  insulation_relative_permitivitty 2.3;
}
object underground_line_conductor {
  name ID_3656;
  rating.summer.continuous 214.0;
  outer_diameter 1.32;
  conductor_gmr 0.0177 ft;
  conductor_diameter 0.528;
  conductor_resistance 0.433488;
  neutral_gmr 0.00208 ft;
  neutral_resistance 14.87;
  neutral_diameter 0.0641;
  neutral_strands 11.0;
  insulation_relative_permitivitty 2.3;
}
object fuse {
  name R3_12_47_1_fuse_1;
// downstream 818.09 kva on ABC
  phases ABCN;
  from R3_12_47_1_node_6;
  to R3_12_47_1_node_14;
  current_limit 100;
  status CLOSED;
  mean_replacement_time 3600;
}
object fuse {
  name R3_12_47_1_fuse_2;
// downstream 144.69 kva on ABC
  phases ABCN;
  from R3_12_47_1_node_16;
  to R3_12_47_1_node_19;
  current_limit 40;
  status CLOSED;
  mean_replacement_time 3600;
}
object fuse {
  name R3_12_47_1_fuse_3;
// downstream 10.38 kva on ACS
  phases ABCN;
  from R3_12_47_1_node_25;
  to R3_12_47_1_node_26;
  current_limit 40;
  status CLOSED;
  mean_replacement_time 3600;
}
object fuse {
  name R3_12_47_1_fuse_4;
// downstream 238.90 kva on ABCS
  phases ABCN;
  from R3_12_47_1_node_38;
  to R3_12_47_1_node_39;
  current_limit 40;
  status CLOSED;
  mean_replacement_time 3600;
}
object fuse {
  name R3_12_47_1_fuse_5;
// downstream 249.36 kva on ABCS
  phases ABCN;
  from R3_12_47_1_node_53;
  to R3_12_47_1_node_54;
  current_limit 40;
  status CLOSED;
  mean_replacement_time 3600;
}
object fuse {
  name R3_12_47_1_fuse_6;
// downstream 885.55 kva on ABCS
  phases ABCN;
  from R3_12_47_1_node_69;
  to R3_12_47_1_node_70;
  current_limit 200;
  status CLOSED;
  mean_replacement_time 3600;
}
object fuse {
  name R3_12_47_1_fuse_7;
// downstream 41.53 kva on ABS
  phases ABN;
  from R3_12_47_1_node_92;
  to R3_12_47_1_node_93;
  current_limit 40;
  status CLOSED;
  mean_replacement_time 3600;
}
object fuse {
  name R3_12_47_1_fuse_8;
// downstream 20.76 kva on ABS
  phases ABN;
  from R3_12_47_1_node_98;
  to R3_12_47_1_node_99;
  current_limit 40;
  status CLOSED;
  mean_replacement_time 3600;
}
object fuse {
  name R3_12_47_1_fuse_9;
// downstream 31.15 kva on ABCS
  phases ABCN;
  from R3_12_47_1_node_103;
  to R3_12_47_1_node_104;
  current_limit 40;
  status CLOSED;
  mean_replacement_time 3600;
}
object fuse {
  name R3_12_47_1_fuse_10;
// downstream 325.76 kva on ABC
  phases ABCN;
  from R3_12_47_1_node_112;
  to R3_12_47_1_node_113;
  current_limit 40;
  status CLOSED;
  mean_replacement_time 3600;
}
object fuse {
  name R3_12_47_1_fuse_11;
// downstream 76.92 kva on ABC
  phases ABCN;
  from R3_12_47_1_node_122;
  to R3_12_47_1_node_123;
  current_limit 40;
  status CLOSED;
  mean_replacement_time 3600;
}
object fuse {
  name R3_12_47_1_fuse_12;
// downstream 62.33 kva on ABCS
  phases ABCN;
  from R3_12_47_1_node_126;
  to R3_12_47_1_node_127;
  current_limit 40;
  status CLOSED;
  mean_replacement_time 3600;
}
object fuse {
  name R3_12_47_1_fuse_13;
// downstream 93.48 kva on ABCS
  phases ABCN;
  from R3_12_47_1_node_129;
  to R3_12_47_1_node_130;
  current_limit 40;
  status CLOSED;
  mean_replacement_time 3600;
}
object fuse {
  name R3_12_47_1_fuse_14;
// downstream 8.87 kva on ABCS
  phases ABCN;
  from R3_12_47_1_node_153;
  to R3_12_47_1_node_154;
  current_limit 40;
  status CLOSED;
  mean_replacement_time 3600;
}
object fuse {
  name R3_12_47_1_fuse_15;
// downstream 234.79 kva on ABCS
  phases ABCN;
  from R3_12_47_1_node_155;
  to R3_12_47_1_node_156;
  current_limit 40;
  status CLOSED;
  mean_replacement_time 3600;
}
object fuse {
  name R3_12_47_1_fuse_16;
// downstream 763.05 kva on ABCS
  phases ABCN;
  from R3_12_47_1_node_166;
  to R3_12_47_1_node_167;
  current_limit 100;
  status CLOSED;
  mean_replacement_time 3600;
}
object fuse {
  name R3_12_47_1_fuse_17;
// downstream 1023.58 kva on ABCS
  phases ABCN;
  from R3_12_47_1_node_198;
  to R3_12_47_1_node_199;
  current_limit 200;
  status CLOSED;
  mean_replacement_time 3600;
}
object fuse {
  name R3_12_47_1_fuse_18;
// downstream 102.38 kva on ACS
  phases ABCN;
  from R3_12_47_1_node_212;
  to R3_12_47_1_node_213;
  current_limit 40;
  status CLOSED;
  mean_replacement_time 3600;
}
object fuse {
  name R3_12_47_1_fuse_19;
// downstream 62.33 kva on ABCS
  phases ABCN;
  from R3_12_47_1_node_235;
  to R3_12_47_1_node_237;
  current_limit 40;
  status CLOSED;
  mean_replacement_time 3600;
}
object fuse {
  name R3_12_47_1_fuse_20;
// downstream 124.75 kva on ABS
  phases ABCN;
  from R3_12_47_1_node_239;
  to R3_12_47_1_node_240;
  current_limit 40;
  status CLOSED;
  mean_replacement_time 3600;
}
object fuse {
  name R3_12_47_1_fuse_21;
// downstream 62.44 kva on ABS
  phases ABN;
  from R3_12_47_1_node_248;
  to R3_12_47_1_node_249;
  current_limit 40;
  status CLOSED;
  mean_replacement_time 3600;
}
object fuse {
  name R3_12_47_1_fuse_22;
// downstream 197.41 kva on ABCS
  phases ABCN;
  from R3_12_47_1_node_257;
  to R3_12_47_1_node_258;
  current_limit 40;
  status CLOSED;
  mean_replacement_time 3600;
}
object fuse {
  name R3_12_47_1_fuse_23;
// downstream 244.12 kva on ABCS
  phases ABCN;
  from R3_12_47_1_node_265;
  to R3_12_47_1_node_266;
  current_limit 40;
  status CLOSED;
  mean_replacement_time 3600;
}
object fuse {
  name R3_12_47_1_fuse_24;
// downstream 20.76 kva on ACS
  phases ACN;
  from R3_12_47_1_node_281;
  to R3_12_47_1_node_282;
  current_limit 40;
  status CLOSED;
  mean_replacement_time 3600;
}
object fuse {
  name R3_12_47_1_fuse_25;
// downstream 20.76 kva on BCS
  phases BCN;
  from R3_12_47_1_node_287;
  to R3_12_47_1_node_288;
  current_limit 40;
  status CLOSED;
  mean_replacement_time 3600;
}
object fuse {
  name R3_12_47_1_fuse_26;
// downstream 20.76 kva on ABS
  phases ABCN;
  from R3_12_47_1_node_295;
  to R3_12_47_1_node_296;
  current_limit 40;
  status CLOSED;
  mean_replacement_time 3600;
}
object fuse {
  name R3_12_47_1_fuse_27;
// downstream 5073.63 kva on ABCS
  phases ABCN;
  from R3_12_47_1_node_303;
  to R3_12_47_1_node_304;
  current_limit 630;
  status CLOSED;
  mean_replacement_time 3600;
}
object fuse {
  name R3_12_47_1_fuse_28;
// downstream 41.53 kva on ABS
  phases ABN;
  from R3_12_47_1_node_318;
  to R3_12_47_1_node_319;
  current_limit 40;
  status CLOSED;
  mean_replacement_time 3600;
}
object fuse {
  name R3_12_47_1_fuse_29;
// downstream 10.38 kva on BC
  phases ABCN;
  from R3_12_47_1_node_340;
  to R3_12_47_1_node_341;
  current_limit 40;
  status CLOSED;
  mean_replacement_time 3600;
}
object fuse {
  name R3_12_47_1_fuse_30;
// downstream 41.56 kva on ABS
  phases ABCN;
  from R3_12_47_1_node_342;
  to R3_12_47_1_node_343;
  current_limit 40;
  status CLOSED;
  mean_replacement_time 3600;
}
object fuse {
  name R3_12_47_1_fuse_31;
// downstream 31.15 kva on ABCS
  phases ABCN;
  from R3_12_47_1_node_342;
  to R3_12_47_1_node_344;
  current_limit 40;
  status CLOSED;
  mean_replacement_time 3600;
}
object fuse {
  name R3_12_47_1_fuse_32;
// downstream 20.76 kva on ACS
  phases ABCN;
  from R3_12_47_1_node_347;
  to R3_12_47_1_node_348;
  current_limit 40;
  status CLOSED;
  mean_replacement_time 3600;
}
object fuse {
  name R3_12_47_1_fuse_33;
// downstream 10.38 kva on BCS
  phases ABCN;
  from R3_12_47_1_node_347;
  to R3_12_47_1_node_349;
  current_limit 40;
  status CLOSED;
  mean_replacement_time 3600;
}
object fuse {
  name R3_12_47_1_fuse_34;
// downstream 4471.13 kva on ABC
  phases ABCN;
  from R3_12_47_1_node_353;
  to R3_12_47_1_node_354;
  current_limit 560;
  status CLOSED;
  mean_replacement_time 3600;
}
object fuse {
  name R3_12_47_1_fuse_35;
// downstream 4471.13 kva on ABC
  phases ABCN;
  from R3_12_47_1_node_356;
  to R3_12_47_1_node_357;
  current_limit 560;
  status CLOSED;
  mean_replacement_time 3600;
}
object fuse {
  name R3_12_47_1_fuse_36;
// downstream 127.27 kva on ABCS
  phases ABCN;
  from R3_12_47_1_node_362;
  to R3_12_47_1_node_363;
  current_limit 40;
  status CLOSED;
  mean_replacement_time 3600;
}
object fuse {
  name R3_12_47_1_fuse_37;
// downstream 435.19 kva on ABCS
  phases ABCN;
  from R3_12_47_1_node_409;
  to R3_12_47_1_node_410;
  current_limit 65;
  status CLOSED;
  mean_replacement_time 3600;
}
object fuse {
  name R3_12_47_1_fuse_38;
// downstream 51.98 kva on ACS
  phases ACN;
  from R3_12_47_1_node_428;
  to R3_12_47_1_node_429;
  current_limit 40;
  status CLOSED;
  mean_replacement_time 3600;
}
object fuse {
  name R3_12_47_1_fuse_39;
// downstream 41.53 kva on ABCS
  phases ABCN;
  from R3_12_47_1_node_432;
  to R3_12_47_1_node_433;
  current_limit 40;
  status CLOSED;
  mean_replacement_time 3600;
}
object fuse {
  name R3_12_47_1_fuse_40;
// downstream 62.33 kva on ABCS
  phases ABCN;
  from R3_12_47_1_node_439;
  to R3_12_47_1_node_440;
  current_limit 40;
  status CLOSED;
  mean_replacement_time 3600;
}
object fuse {
  name R3_12_47_1_fuse_41;
// downstream 31.22 kva on ACS
  phases ACN;
  from R3_12_47_1_node_447;
  to R3_12_47_1_node_448;
  current_limit 40;
  status CLOSED;
  mean_replacement_time 3600;
}
object fuse {
  name R3_12_47_1_fuse_42;
// downstream 75.82 kva on AS
  phases ACN;
  from R3_12_47_1_node_459;
  to R3_12_47_1_node_460;
  current_limit 40;
  status CLOSED;
  mean_replacement_time 3600;
}
object fuse {
  name R3_12_47_1_fuse_43;
// downstream 999.22 kva on ABCS
  phases ABCN;
  from R3_12_47_1_node_393;
  to R3_12_47_1_node_493;
  current_limit 200;
  status CLOSED;
  mean_replacement_time 3600;
}
object fuse {
  name R3_12_47_1_fuse_44;
// downstream 634.04 kva on ABCS
  phases ABCN;
  from R3_12_47_1_node_499;
  to R3_12_47_1_node_500;
  current_limit 100;
  status CLOSED;
  mean_replacement_time 3600;
}
object fuse {
  name R3_12_47_1_fuse_45;
// downstream 665.21 kva on ABCS
  phases ABCN;
  from R3_12_47_1_node_513;
  to R3_12_47_1_node_514;
  current_limit 100;
  status CLOSED;
  mean_replacement_time 3600;
}
object fuse {
  name R3_12_47_1_fuse_46;
// downstream 31.15 kva on ABC
  phases ABCN;
  from R3_12_47_1_node_523;
  to R3_12_47_1_node_525;
  current_limit 40;
  status CLOSED;
  mean_replacement_time 3600;
}
object fuse {
  name R3_12_47_1_fuse_47;
// downstream 10.38 kva on AB
  phases ABN;
  from R3_12_47_1_node_527;
  to R3_12_47_1_node_528;
  current_limit 40;
  status CLOSED;
  mean_replacement_time 3600;
}
object fuse {
  name R3_12_47_1_fuse_48;
// downstream 35.25 kva on ABC
  phases ABCN;
  from R3_12_47_1_node_530;
  to R3_12_47_1_node_531;
  current_limit 40;
  status CLOSED;
  mean_replacement_time 3600;
}
object fuse {
  name R3_12_47_1_fuse_49;
// downstream 31.15 kva on ABC
  phases ABCN;
  from R3_12_47_1_node_534;
  to R3_12_47_1_node_535;
  current_limit 40;
  status CLOSED;
  mean_replacement_time 3600;
}
object fuse {
  name R3_12_47_1_fuse_50;
// downstream 47.72 kva on ABC
  phases ABCN;
  from R3_12_47_1_node_537;
  to R3_12_47_1_node_538;
  current_limit 40;
  status CLOSED;
  mean_replacement_time 3600;
}
object fuse {
  name R3_12_47_1_fuse_51;
// downstream 120.05 kva on ABC
  phases ABCN;
  from R3_12_47_1_node_387;
  to R3_12_47_1_node_542;
  current_limit 40;
  status CLOSED;
  mean_replacement_time 3600;
}
object fuse {
  name R3_12_47_1_fuse_52;
// downstream 301.32 kva on ABC
  phases ABCN;
  from R3_12_47_1_node_545;
  to R3_12_47_1_node_546;
  current_limit 40;
  status CLOSED;
  mean_replacement_time 3600;
}
object fuse {
  name R3_12_47_1_fuse_53;
// downstream 62.29 kva on ABC
  phases ABCN;
  from R3_12_47_1_node_566;
  to R3_12_47_1_node_569;
  current_limit 40;
  status CLOSED;
  mean_replacement_time 3600;
}
object fuse {
  name R3_12_47_1_fuse_54;
// downstream 62.33 kva on ABC
  phases ABCN;
  from R3_12_47_1_node_574;
  to R3_12_47_1_node_576;
  current_limit 40;
  status CLOSED;
  mean_replacement_time 3600;
}
object fuse {
  name R3_12_47_1_fuse_55;
// downstream 35.30 kva on ABC
  phases ABCN;
  from R3_12_47_1_node_580;
  to R3_12_47_1_node_581;
  current_limit 40;
  status CLOSED;
  mean_replacement_time 3600;
}
object fuse {
  name R3_12_47_1_fuse_56;
// downstream 124.73 kva on ABC
  phases ABCN;
  from R3_12_47_1_node_586;
  to R3_12_47_1_node_587;
  current_limit 40;
  status CLOSED;
  mean_replacement_time 3600;
}
object fuse {
  name R3_12_47_1_fuse_57;
// downstream 187.10 kva on ABC
  phases ABCN;
  from R3_12_47_1_node_589;
  to R3_12_47_1_node_590;
  current_limit 40;
  status CLOSED;
  mean_replacement_time 3600;
}
object fuse {
  name R3_12_47_1_fuse_58;
// downstream 869.46 kva on ABC
  phases ABCN;
  from R3_12_47_1_node_596;
  to R3_12_47_1_node_597;
  current_limit 200;
  status CLOSED;
  mean_replacement_time 3600;
}
object fuse {
  name R3_12_47_1_fuse_59;
// downstream 31.15 kva on ABCS
  phases ABCN;
  from R3_12_47_1_node_543;
  to R3_12_47_1_node_611;
  current_limit 40;
  status CLOSED;
  mean_replacement_time 3600;
}
object fuse {
  name R3_12_47_1_fuse_60;
// downstream 343.41 kva on ABC
  phases ABCN;
  from R3_12_47_1_node_614;
  to R3_12_47_1_node_615;
  current_limit 40;
  status CLOSED;
  mean_replacement_time 3600;
}
object fuse {
  name R3_12_47_1_fuse_61;
// downstream 661.21 kva on ABCS
  phases ABCN;
  from R3_12_47_1_node_623;
  to R3_12_47_1_node_632;
  current_limit 100;
  status CLOSED;
  mean_replacement_time 3600;
}
object switch {
  name R3_12_47_1_switch_1;
// downstream 1454.22 kva on ABC
  phases ABCN;
  from R3_12_47_1_node_164;
  to R3_12_47_1_node_165;
  status CLOSED;
}
object switch {
  name R3_12_47_1_switch_2;
// downstream 17579.75 kva on ABCS
  phases ABCN;
  from R3_12_47_1_node_3;
  to R3_12_47_1_node_4;
  status CLOSED;
}
object switch {
  name R3_12_47_1_switch_3;
// downstream 15791.59 kva on ABCS
  phases ABCN;
  from R3_12_47_1_node_16;
  to R3_12_47_1_node_18;
  status CLOSED;
}
object switch {
  name R3_12_47_1_switch_4;
// downstream 5030.13 kva on ABCS
  phases ABCN;
  from R3_12_47_1_node_22;
  to R3_12_47_1_node_24;
  status CLOSED;
}
object switch {
  name R3_12_47_1_switch_5;
// downstream 5030.13 kva on ABCS
  phases ABCN;
  from R3_12_47_1_node_23;
  to R3_12_47_1_node_22;
  status CLOSED;
}
object switch {
  name R3_12_47_1_switch_6;
// downstream 4858.31 kva on ABCS
  phases ABCN;
  from R3_12_47_1_node_32;
  to R3_12_47_1_node_33;
  status CLOSED;
}
object switch {
  name R3_12_47_1_switch_7;
  phases ABCN;
  from R3_12_47_1_node_34;
  to R3_12_47_1_node_1;
  status CLOSED;
}
object switch {
  name R3_12_47_1_switch_8;
// downstream 4858.31 kva on ABCS
  phases ABCN;
  from R3_12_47_1_node_34;
  to R3_12_47_1_node_35;
  status CLOSED;
}
object switch {
  name R3_12_47_1_switch_9;
  phases ABCN;
  from R3_12_47_1_node_34;
  to R3_12_47_1_node_37;
  status CLOSED;
}
object switch {
  name R3_12_47_1_switch_10;
// downstream 4858.31 kva on ABCS
  phases ABCN;
  from R3_12_47_1_node_36;
  to R3_12_47_1_node_34;
  status CLOSED;
}
object switch {
  name R3_12_47_1_switch_11;
  phases ABCN;
  from R3_12_47_1_node_146;
  to R3_12_47_1_node_147;
  status CLOSED;
}
object switch {
  name R3_12_47_1_switch_12;
  phases ABCN;
  from R3_12_47_1_node_146;
  to R3_12_47_1_node_148;
  status CLOSED;
}
object switch {
  name R3_12_47_1_switch_13;
// downstream 3484.50 kva on ABCS
  phases ABCN;
  from R3_12_47_1_node_146;
  to R3_12_47_1_node_149;
  status CLOSED;
}
object switch {
  name R3_12_47_1_switch_14;
// downstream 3484.50 kva on ABCS
  phases ABCN;
  from R3_12_47_1_node_150;
  to R3_12_47_1_node_146;
  status CLOSED;
}
object switch {
  name R3_12_47_1_switch_15;
  phases ABCN;
  from R3_12_47_1_node_158;
  to R3_12_47_1_node_159;
  status CLOSED;
}
object switch {
  name R3_12_47_1_switch_16;
// downstream 1454.22 kva on ABC
  phases ABCN;
  from R3_12_47_1_node_158;
  to R3_12_47_1_node_161;
  status CLOSED;
}
object switch {
  name R3_12_47_1_switch_17;
// downstream 1786.62 kva on ABCS
  phases ABCN;
  from R3_12_47_1_node_158;
  to R3_12_47_1_node_162;
  status CLOSED;
}
object switch {
  name R3_12_47_1_switch_18;
// downstream 3240.84 kva on ABCS
  phases ABCN;
  from R3_12_47_1_node_160;
  to R3_12_47_1_node_158;
  status CLOSED;
}
object switch {
  name R3_12_47_1_switch_19;
// downstream 5813.74 kva on ABCS
  phases ABCN;
  from R3_12_47_1_node_235;
  to R3_12_47_1_node_236;
  status CLOSED;
}
object switch {
  name R3_12_47_1_switch_20;
// downstream 5200.90 kva on ABCS
  phases ABCN;
  from R3_12_47_1_node_299;
  to R3_12_47_1_node_300;
  status CLOSED;
}
object switch {
  name R3_12_47_1_switch_21;
// downstream 197.41 kva on ABCS
  phases ABCN;
  from R3_12_47_1_node_255;
  to R3_12_47_1_node_371;
  status CLOSED;
}
object switch {
  name R3_12_47_1_switch_22;
  phases ABCN;
  from R3_12_47_1_node_376;
  to R3_12_47_1_node_377;
  status CLOSED;
}
object switch {
  name R3_12_47_1_switch_23;
  phases ABCN;
  from R3_12_47_1_node_381;
  to R3_12_47_1_node_633;
  status CLOSED;
}
object switch {
  name R3_12_47_1_switch_24;
// downstream 4526.33 kva on ABCS
  phases ABCN;
  from R3_12_47_1_node_388;
  to R3_12_47_1_node_390;
  status CLOSED;
}
object switch {
  name R3_12_47_1_switch_25;
// downstream 3527.10 kva on ABCS
  phases ABCN;
  from R3_12_47_1_node_393;
  to R3_12_47_1_node_491;
  status CLOSED;
}
object switch {
  name R3_12_47_1_switch_26;
  phases ABCN;
  from R3_12_47_1_node_393;
  to R3_12_47_1_node_494;
  status CLOSED;
}
object switch {
  name R3_12_47_1_switch_27;
// downstream 4526.33 kva on ABCS
  phases ABCN;
  from R3_12_47_1_node_492;
  to R3_12_47_1_node_393;
  status CLOSED;
}
object switch {
  name R3_12_47_1_switch_28;
  phases ABCN;
  from R3_12_47_1_node_544;
  to R3_12_47_1_node_2;
  status CLOSED;
}
object switch {
  name R3_12_47_1_switch_29;
// downstream 301.32 kva on ABC
  phases ABCN;
  from R3_12_47_1_node_544;
  to R3_12_47_1_node_561;
  status CLOSED;
}
object switch {
  name R3_12_47_1_switch_30;
// downstream 1791.65 kva on ABC
  phases ABCN;
  from R3_12_47_1_node_544;
  to R3_12_47_1_node_563;
  status CLOSED;
}
object switch {
  name R3_12_47_1_switch_31;
// downstream 2092.96 kva on ABC
  phases ABCN;
  from R3_12_47_1_node_562;
  to R3_12_47_1_node_544;
  status CLOSED;
}
object overhead_line {
  name R3_12_47_1_ol_1;
// downstream 72.72 kva on ABCS
  phases ABCN;
  from R3_12_47_1_node_438;
  to R3_12_47_1_node_439;
  length 127.800;
  configuration ID_65;
}
object overhead_line {
  name R3_12_47_1_ol_2;
// downstream 10.38 kva on ABS
  phases ABN;
  from R3_12_47_1_node_438;
  to R3_12_47_1_node_443;
  length 122.100;
  configuration ID_66;
}
object overhead_line {
  name R3_12_47_1_ol_3;
// downstream 10.38 kva on BCS
  phases BCN;
  from R3_12_47_1_node_439;
  to R3_12_47_1_node_442;
  length 64.600;
  configuration ID_67;
}
object overhead_line {
  name R3_12_47_1_ol_4;
// downstream 10.38 kva on ABS
  phases ABN;
  from R3_12_47_1_node_443;
  to R3_12_47_1_node_444;
  length 122.400;
  configuration ID_66;
}
object overhead_line {
  name R3_12_47_1_ol_5;
// downstream 10.38 kva on ABS
  phases ABN;
  from R3_12_47_1_node_444;
  to R3_12_47_1_node_445;
  length 159.400;
  configuration ID_66;
}
object overhead_line {
  name R3_12_47_1_ol_6;
// downstream 31.22 kva on ACS
  phases ACN;
  from R3_12_47_1_node_446;
  to R3_12_47_1_node_447;
  length 161.300;
  configuration ID_69;
}
object overhead_line {
  name R3_12_47_1_ol_7;
// downstream 10.38 kva on BCS
  phases BCN;
  from R3_12_47_1_node_450;
  to R3_12_47_1_node_451;
  length 125.900;
  configuration ID_67;
}
object overhead_line {
  name R3_12_47_1_ol_8;
  phases ACN;
  from R3_12_47_1_node_460;
  to R3_12_47_1_node_461;
  length 161.600;
  configuration ID_74;
}
object overhead_line {
  name R3_12_47_1_ol_9;
// downstream 75.82 kva on AS
  phases AN;
  from R3_12_47_1_node_460;
  to R3_12_47_1_node_462;
  length 161.600;
  configuration ID_75;
}
object overhead_line {
  name R3_12_47_1_ol_10;
// downstream 75.82 kva on AS
  phases AN;
  from R3_12_47_1_node_462;
  to R3_12_47_1_node_463;
  length 128.100;
  configuration ID_75;
}
object overhead_line {
  name R3_12_47_1_ol_11;
// downstream 55.06 kva on AS
  phases AN;
  from R3_12_47_1_node_463;
  to R3_12_47_1_node_464;
  length 140.200;
  configuration ID_75;
}
object overhead_line {
  name R3_12_47_1_ol_12;
// downstream 20.76 kva on AS
  phases AN;
  from R3_12_47_1_node_463;
  to R3_12_47_1_node_482;
  length 111.000;
  configuration ID_75;
}
object overhead_line {
  name R3_12_47_1_ol_13;
// downstream 55.06 kva on AS
  phases AN;
  from R3_12_47_1_node_464;
  to R3_12_47_1_node_465;
  length 78.800;
  configuration ID_75;
}
object overhead_line {
  name R3_12_47_1_ol_14;
// downstream 44.67 kva on AS
  phases AN;
  from R3_12_47_1_node_465;
  to R3_12_47_1_node_466;
  length 105.000;
  configuration ID_75;
}
object overhead_line {
  name R3_12_47_1_ol_15;
// downstream 44.67 kva on AS
  phases AN;
  from R3_12_47_1_node_466;
  to R3_12_47_1_node_467;
  length 137.300;
  configuration ID_75;
}
object overhead_line {
  name R3_12_47_1_ol_16;
// downstream 23.90 kva on AS
  phases AN;
  from R3_12_47_1_node_467;
  to R3_12_47_1_node_468;
  length 60.700;
  configuration ID_75;
}
object overhead_line {
  name R3_12_47_1_ol_17;
// downstream 16754.37 kva on ABCS
  phases ABCN;
  from R3_12_47_1_node_5;
  to R3_12_47_1_node_6;
  length 241.300;
  configuration ID_102;
}
object overhead_line {
  name R3_12_47_1_ol_18;
// downstream 15936.28 kva on ABCS
  phases ABCN;
  from R3_12_47_1_node_6;
  to R3_12_47_1_node_15;
  length 258.100;
  configuration ID_102;
}
object overhead_line {
  name R3_12_47_1_ol_19;
// downstream 15936.28 kva on ABCS
  phases ABCN;
  from R3_12_47_1_node_15;
  to R3_12_47_1_node_16;
  length 213.200;
  configuration ID_102;
}
object overhead_line {
  name R3_12_47_1_ol_20;
// downstream 15791.59 kva on ABCS
  phases ABCN;
  from R3_12_47_1_node_18;
  to R3_12_47_1_node_20;
  length 309.100;
  configuration ID_102;
}
object overhead_line {
  name R3_12_47_1_ol_21;
// downstream 5030.13 kva on ABCS
  phases ABCN;
  from R3_12_47_1_node_21;
  to R3_12_47_1_node_23;
  length 129.400;
  configuration ID_76;
}
object overhead_line {
  name R3_12_47_1_ol_22;
// downstream 5030.13 kva on ABCS
  phases ABCN;
  from R3_12_47_1_node_24;
  to R3_12_47_1_node_25;
  length 148.700;
  configuration ID_76;
}
object overhead_line {
  name R3_12_47_1_ol_23;
// downstream 5019.75 kva on ABCS
  phases ABCN;
  from R3_12_47_1_node_25;
  to R3_12_47_1_node_28;
  length 143.000;
  configuration ID_76;
}
object overhead_line {
  name R3_12_47_1_ol_24;
// downstream 4914.41 kva on ABCS
  phases ABCN;
  from R3_12_47_1_node_28;
  to R3_12_47_1_node_29;
  length 315.900;
  configuration ID_76;
}
object overhead_line {
  name R3_12_47_1_ol_25;
// downstream 33.30 kva on ABCS
  phases ABCN;
  from R3_12_47_1_node_28;
  to R3_12_47_1_node_210;
  length 60.400;
  configuration ID_76;
}
object overhead_line {
  name R3_12_47_1_ol_26;
// downstream 72.05 kva on ABCS
  phases ABCN;
  from R3_12_47_1_node_28;
  to R3_12_47_1_node_211;
  length 271.000;
  configuration ID_77;
}
object overhead_line {
  name R3_12_47_1_ol_27;
// downstream 4889.46 kva on ABCS
  phases ABCN;
  from R3_12_47_1_node_29;
  to R3_12_47_1_node_30;
  length 163.500;
  configuration ID_76;
}
object overhead_line {
  name R3_12_47_1_ol_28;
// downstream 31.15 kva on ABCS
  phases ABCN;
  from R3_12_47_1_node_30;
  to R3_12_47_1_node_31;
  length 59.500;
  configuration ID_65;
}
object overhead_line {
  name R3_12_47_1_ol_29;
// downstream 4858.31 kva on ABCS
  phases ABCN;
  from R3_12_47_1_node_30;
  to R3_12_47_1_node_32;
  length 99.900;
  configuration ID_76;
}
object overhead_line {
  name R3_12_47_1_ol_30;
// downstream 885.55 kva on ABCS
  phases ABCN;
  from R3_12_47_1_node_70;
  to R3_12_47_1_node_71;
  length 119.500;
  configuration ID_65;
}
object overhead_line {
  name R3_12_47_1_ol_31;
// downstream 51.92 kva on ABCS
  phases ABCN;
  from R3_12_47_1_node_71;
  to R3_12_47_1_node_72;
  length 64.200;
  configuration ID_65;
}
object overhead_line {
  name R3_12_47_1_ol_32;
// downstream 833.63 kva on ABCS
  phases ABCN;
  from R3_12_47_1_node_71;
  to R3_12_47_1_node_73;
  length 136.300;
  configuration ID_65;
}
object overhead_line {
  name R3_12_47_1_ol_33;
// downstream 833.63 kva on ABCS
  phases ABCN;
  from R3_12_47_1_node_73;
  to R3_12_47_1_node_74;
  length 146.100;
  configuration ID_65;
}
object overhead_line {
  name R3_12_47_1_ol_34;
// downstream 833.63 kva on ABCS
  phases ABCN;
  from R3_12_47_1_node_74;
  to R3_12_47_1_node_75;
  length 79.700;
  configuration ID_83;
}
object overhead_line {
  name R3_12_47_1_ol_35;
// downstream 833.63 kva on ABCS
  phases ABCN;
  from R3_12_47_1_node_75;
  to R3_12_47_1_node_76;
  length 117.700;
  configuration ID_83;
}
object overhead_line {
  name R3_12_47_1_ol_36;
// downstream 25.96 kva on BS
...